PYL
  CCTOOLS-0718141312

 39 39  0  0  1  0  0  0  0  0999 V2000
    3.9800    2.4420   -0.3240 C   0  0  0  0  0
    4.4120    1.1250    0.3250 C   0  0  0  0  0
    5.9520    0.9750    0.3130 C   0  0  0  0  0
    6.1690   -0.4930    0.0220 C   0  0  0  0  0
    5.1100   -1.0350   -0.4300 N   0  0  0  0  0
    3.9950   -0.0870   -0.5400 C   0  0  0  0  0
    2.7290   -0.7030   -0.0040 C   0  0  0  0  0
    2.7840   -1.7000    0.6850 O   0  0  0  0  0
    1.5350   -0.1460   -0.2880 N   0  0  0  0  0
    0.3040   -0.7450    0.2340 C   0  0  0  0  0
   -0.9000    0.0750   -0.2330 C   0  0  0  0  0
   -2.1850   -0.5500    0.3120 C   0  0  0  0  0
   -3.3890    0.2700   -0.1550 C   0  0  0  0  0
   -4.6750   -0.3550    0.3900 C   0  0  0  0  0
   -5.8490    0.5200    0.0340 C   0  0  0  0  0
   -6.1140    1.6160    0.7620 O   0  0  0  0  0
   -6.5520    0.2340   -0.9060 O   0  0  0  0  0
   -4.8600   -1.6870   -0.2010 N   0  0  0  0  0
   -6.8780    2.1460    0.4950 H   0  0  0  0  0
   -4.6040   -0.4450    1.4740 H   0  0  0  0  0
   -5.6680   -2.1480    0.1920 H   0  0  0  0  0
   -4.9290   -1.6310   -1.2060 H   0  0  0  0  0
   -3.2980    1.2920    0.2140 H   0  0  0  0  0
   -3.4230    0.2790   -1.2440 H   0  0  0  0  0
   -2.2770   -1.5720   -0.0570 H   0  0  0  0  0
   -2.1520   -0.5580    1.4010 H   0  0  0  0  0
   -0.8080    1.0970    0.1350 H   0  0  0  0  0
   -0.9330    0.0840   -1.3230 H   0  0  0  0  0
    0.2130   -1.7670   -0.1350 H   0  0  0  0  0
    0.3380   -0.7530    1.3230 H   0  0  0  0  0
    1.4910    0.6510   -0.8390 H   0  0  0  0  0
    3.8590    0.2180   -1.5780 H   0  0  0  0  0
    7.1020   -1.0150    0.1780 H   0  0  0  0  0
    6.3910    1.5900   -0.4730 H   0  0  0  0  0
    6.3710    1.2390    1.2840 H   0  0  0  0  0
    4.0160    1.0410    1.3370 H   0  0  0  0  0
    4.3460    2.4780   -1.3500 H   0  0  0  0  0
    2.8920    2.5070   -0.3240 H   0  0  0  0  0
    4.3950    3.2780    0.2390 H   0  0  0  0  0
  1  2  1  0  0  0
  1 37  1  0  0  0
  1 38  1  0  0  0
  1 39  1  0  0  0
  2  3  1  0  0  0
  2  6  1  0  0  0
  2 36  1  0  0  0
  3  4  1  0  0  0
  3 34  1  0  0  0
  3 35  1  0  0  0
  4  5  2  0  0  0
  4 33  1  0  0  0
  5  6  1  0  0  0
  6  7  1  0  0  0
  6 32  1  0  0  0
  7  9  1  0  0  0
  7  8  2  0  0  0
  9 10  1  0  0  0
  9 31  1  0  0  0
 10 11  1  0  0  0
 10 29  1  0  0  0
 10 30  1  0  0  0
 11 12  1  0  0  0
 11 27  1  0  0  0
 11 28  1  0  0  0
 12 13  1  0  0  0
 12 25  1  0  0  0
 12 26  1  0  0  0
 13 14  1  0  0  0
 13 23  1  0  0  0
 13 24  1  0  0  0
 14 15  1  0  0  0
 14 20  1  0  0  0
 14 18  1  0  0  0
 15 16  1  0  0  0
 15 17  2  0  0  0
 16 19  1  0  0  0
 18 21  1  0  0  0
 18 22  1  0  0  0
M  END
$$$$
